"""
****************************************************************************
  A 40-species skeletal model for JP-10
  Genrated by:
     Ji-Woong Park
     Tianfeng Lu, tlu@engr.uconn.edu
     University of Connecticut
  24-Aug-2017

 Based on:

 HyChem model for JP10
 Version 1.0 - High temperature chemistry

 Copyright © 2018 HyChem

****************************************************************************

 HyChem model for JP10
 Version 1.0 - High temperature chemistry

 Y. Tao, R. Xu, K. Wang, J. Shao, S. Johnson, T. Parise, A. Movaghar,
 D.J. Lee, X. Han, J. Park, T. Lu, K. Brezinsky, F.N. Egolfopoulos,
 D.F. Davidson, R.K. Hanson, C.T. Bowman, H. Wang, A physics-based
 approach to modeling real-fuel combustion chemistry - III. Reaction
 kinetic model of JP10 Combustion and Flame 198 (2018) 466476.

 Please contact Hai Wang at haiwang@stanford.edu for questions and comments.

 Copyright © 2018 HyChem

****************************************************************************

 Model description: Seven reaction steps to describe JP10 thermal
 decomposition and USC Mech IIa as the foundational fuel chemistry model.
 The cracked products considered are C2H4, H2, C3H6, C5H6, benzene,
 toluene, CH3, C3H5 and H. The oxidation kinetics of these cracking
 products are described by USC Mech IIa.

****************************************************************************

"""

units(length='cm', time='s', quantity='mol', act_energy='cal/mol')

ideal_gas(name='gas',
          elements="O H C N Ar He",
          species="""C10H16      H2          CH3         CH4
                     C2H4        C2H2        C3H6        C6H6
                     C6H5CH3     C5H6        O2          CO
                     pC3H4       O           OH          HO2
                     H2O         H2O2        H           CH2
                     CH2*        HCO         CH2O        CH3O
                     CO2         C2H3        HCCO        CH2CO
                     CH2CHO      C3H3        aC3H5       C2H3CHO
                     c-C4H5      C4H81       C5H4O       C5H5O(2,4)
                     C5H5        C6H5        C6H5O       N2""",
          reactions='all',
          transport='Mix',
          initial_state=state(temperature=300.0, pressure=OneAtm))

#-------------------------------------------------------------------------------
# Species data
#-------------------------------------------------------------------------------

species(name=u'C10H16',
        atoms='H:16 C:10',
        thermo=(NASA([200.00, 1000.00],
                     [ 2.85948209E+00,  2.35106377E-03,  2.51225636E-04,
                      -3.40666545E-07,  1.38333372E-10, -1.17815129E+04,
                       1.76905061E+01]),
                NASA([1000.00, 6000.00],
                     [ 1.81657042E+01,  5.17747340E-02, -1.86809409E-05,
                       3.02499547E-09, -1.81483745E-13, -2.00506251E+04,
                      -8.24466452E+01])),
        transport=gas_transport(geom='nonlinear',
                                diam=6.508,
                                well_depth=578.716,
                                rot_relax=1.0),
        note=u'exo(JP-10)T10/10')

species(name=u'H2',
        atoms='H:2',
        thermo=(NASA([200.00, 1000.00],
                     [ 2.34433112E+00,  7.98052075E-03, -1.94781510E-05,
                       2.01572094E-08, -7.37611761E-12, -9.17935173E+02,
                       6.83010238E-01]),
                NASA([1000.00, 3500.00],
                     [ 3.33727920E+00, -4.94024731E-05,  4.99456778E-07,
                      -1.79566394E-10,  2.00255376E-14, -9.50158922E+02,
                      -3.20502331E+00])),
        transport=gas_transport(geom='linear',
                                diam=2.92,
                                well_depth=38.0,
                                polar=0.79,
                                rot_relax=280.0),
        note=u'TPIS78')

species(name=u'CH3',
        atoms='H:3 C:1',
        thermo=(NASA([200.00, 1000.00],
                     [ 3.67359040E+00,  2.01095175E-03,  5.73021856E-06,
                      -6.87117425E-09,  2.54385734E-12,  1.64449988E+04,
                       1.60456433E+00]),
                NASA([1000.00, 3500.00],
                     [ 2.28571772E+00,  7.23990037E-03, -2.98714348E-06,
                       5.95684644E-10, -4.67154394E-14,  1.67755843E+04,
                       8.48007179E+00])),
        transport=gas_transport(geom='linear',
                                diam=3.8,
                                well_depth=144.0),
        note=u'L11/89')

species(name=u'CH4',
        atoms='H:4 C:1',
        thermo=(NASA([200.00, 1000.00],
                     [ 5.14987613E+00, -1.36709788E-02,  4.91800599E-05,
                      -4.84743026E-08,  1.66693956E-11, -1.02466476E+04,
                      -4.64130376E+00]),
                NASA([1000.00, 3500.00],
                     [ 7.48514950E-02,  1.33909467E-02, -5.73285809E-06,
                       1.22292535E-09, -1.01815230E-13, -9.46834459E+03,
                       1.84373180E+01])),
        transport=gas_transport(geom='nonlinear',
                                diam=3.746,
                                well_depth=141.4,
                                polar=2.6,
                                rot_relax=13.0),
        note=u'L8/88')

species(name=u'C2H4',
        atoms='H:4 C:2',
        thermo=(NASA([200.00, 1000.00],
                     [ 3.95920148E+00, -7.57052247E-03,  5.70990292E-05,
                      -6.91588753E-08,  2.69884373E-11,  5.08977593E+03,
                       4.09733096E+00]),
                NASA([1000.00, 3500.00],
                     [ 2.03611116E+00,  1.46454151E-02, -6.71077915E-06,
                       1.47222923E-09, -1.25706061E-13,  4.93988614E+03,
                       1.03053693E+01])),
        transport=gas_transport(geom='nonlinear',
                                diam=3.971,
                                well_depth=280.8,
                                rot_relax=1.5),
        note=u'L1/91')

species(name=u'C2H2',
        atoms='H:2 C:2',
        thermo=(NASA([200.00, 1000.00],
                     [ 8.08681094E-01,  2.33615629E-02, -3.55171815E-05,
                       2.80152437E-08, -8.50072974E-12,  2.64289807E+04,
                       1.39397051E+01]),
                NASA([1000.00, 3500.00],
                     [ 4.14756964E+00,  5.96166664E-03, -2.37294852E-06,
                       4.67412171E-10, -3.61235213E-14,  2.59359992E+04,
                      -1.23028121E+00])),
        transport=gas_transport(geom='linear',
                                diam=4.1,
                                well_depth=209.0,
                                rot_relax=2.5),
        note=u'L1/91')

species(name=u'C3H6',
        atoms='H:6 C:3',
        thermo=(NASA([300.00, 1000.00],
                     [ 1.49330700E+00,  2.09251800E-02,  4.48679400E-06,
                      -1.66891200E-08,  7.15814600E-12,  1.07482600E+03,
                       1.61453400E+01]),
                NASA([1000.00, 5000.00],
                     [ 6.73225700E+00,  1.49083400E-02, -4.94989900E-06,
                       7.21202200E-10, -3.76620400E-14, -9.23570300E+02,
                      -1.33133500E+01])),
        transport=gas_transport(geom='nonlinear',
                                diam=4.982,
                                well_depth=266.8,
                                rot_relax=1.0),
        note=u'120186')

species(name=u'C6H6',
        atoms='H:6 C:6',
        thermo=(NASA([300.00, 1000.00],
                     [-4.84377340E+00,  5.84276130E-02, -2.94858550E-05,
                      -6.93904400E-09,  8.21252530E-12,  9.18177730E+03,
                       4.38898320E+01]),
                NASA([1000.00, 3000.00],
                     [ 9.13812450E+00,  2.38544330E-02, -8.81277260E-06,
                       1.20990210E-09, -1.82215030E-14,  5.20434620E+03,
                      -2.91156650E+01])),
        transport=gas_transport(geom='nonlinear',
                                diam=5.29,
                                well_depth=464.8,
                                polar=10.32),
        note=u'D11/99')

species(name=u'C6H5CH3',
        atoms='H:8 C:7',
        thermo=(NASA([200.00, 1000.00],
                     [ 1.61526630E+00,  2.10994380E-02,  8.53660180E-05,
                      -1.32610660E-07,  5.59566040E-11,  4.07563000E+03,
                       2.02822100E+01]),
                NASA([1000.00, 6000.00],
                     [ 1.29400340E+01,  2.66912870E-02, -9.68385050E-06,
                       1.57386290E-09, -9.46636010E-14, -6.97649080E+02,
                      -4.67287850E+01])),
        transport=gas_transport(geom='nonlinear',
                                diam=5.68,
                                well_depth=495.3,
                                dipole=0.43,
                                polar=12.3,
                                rot_relax=1.0),
        note=u'L6/87')

species(name=u'C5H6',
        atoms='H:6 C:5',
        thermo=(NASA([200.00, 1000.00],
                     [ 8.61089570E-01,  1.48040310E-02,  7.21088950E-05,
                      -1.13380550E-07,  4.86899720E-11,  1.48017550E+04,
                       2.13534530E+01]),
                NASA([1000.00, 6000.00],
                     [ 9.97578480E+00,  1.89055430E-02, -6.84114610E-06,
                       1.10993400E-09, -6.66802360E-14,  1.10816930E+04,
                      -3.22094540E+01])),
        transport=gas_transport(geom='linear',
                                diam=5.18,
                                well_depth=357.0,
                                rot_relax=1.0),
        note=u'T1/90')

species(name=u'O2',
        atoms='O:2',
        thermo=(NASA([200.00, 1000.00],
                     [ 3.78245636E+00, -2.99673416E-03,  9.84730201E-06,
                      -9.68129509E-09,  3.24372837E-12, -1.06394356E+03,
                       3.65767573E+00]),
                NASA([1000.00, 3500.00],
                     [ 3.28253784E+00,  1.48308754E-03, -7.57966669E-07,
                       2.09470555E-10, -2.16717794E-14, -1.08845772E+03,
                       5.45323129E+00])),
        transport=gas_transport(geom='linear',
                                diam=3.458,
                                well_depth=107.4,
                                polar=1.6,
                                rot_relax=3.8),
        note=u'TPIS89')

species(name=u'CO',
        atoms='C:1 O:1',
        thermo=(NASA([200.00, 1000.00],
                     [ 3.57953347E+00, -6.10353680E-04,  1.01681433E-06,
                       9.07005884E-10, -9.04424499E-13, -1.43440860E+04,
                       3.50840928E+00]),
                NASA([1000.00, 3500.00],
                     [ 2.71518561E+00,  2.06252743E-03, -9.98825771E-07,
                       2.30053008E-10, -2.03647716E-14, -1.41518724E+04,
                       7.81868772E+00])),
        transport=gas_transport(geom='linear',
                                diam=3.65,
                                well_depth=98.1,
                                polar=1.95,
                                rot_relax=1.8),
        note=u'TPIS79')

species(name=u'pC3H4',
        atoms='H:4 C:3',
        thermo=(NASA([200.00, 1000.00],
                     [ 2.68038690E+00,  1.57996510E-02,  2.50705960E-06,
                      -1.36576230E-08,  6.61542850E-12,  2.08023740E+04,
                       9.87693510E+00]),
                NASA([1000.00, 6000.00],
                     [ 6.02524000E+00,  1.13365420E-02, -4.02233910E-06,
                       6.43760630E-10, -3.82996350E-14,  1.96209420E+04,
                      -8.60437850E+00])),
        transport=gas_transport(geom='linear',
                                diam=4.76,
                                well_depth=252.0,
                                rot_relax=1.0),
        note=u'T2/90')

species(name=u'O',
        atoms='O:1',
        thermo=(NASA([200.00, 1000.00],
                     [ 3.16826710E+00, -3.27931884E-03,  6.64306396E-06,
                      -6.12806624E-09,  2.11265971E-12,  2.91222592E+04,
                       2.05193346E+00]),
                NASA([1000.00, 3500.00],
                     [ 2.56942078E+00, -8.59741137E-05,  4.19484589E-08,
                      -1.00177799E-11,  1.22833691E-15,  2.92175791E+04,
                       4.78433864E+00])),
        transport=gas_transport(geom='atom',
                                diam=2.75,
                                well_depth=80.0),
        note=u'L1/90')

species(name=u'OH',
        atoms='H:1 O:1',
        thermo=(NASA([200.00, 1000.00],
                     [ 4.12530561E+00, -3.22544939E-03,  6.52764691E-06,
                      -5.79853643E-09,  2.06237379E-12,  3.38153812E+03,
                      -6.90432960E-01]),
                NASA([1000.00, 6000.00],
                     [ 2.86472886E+00,  1.05650448E-03, -2.59082758E-07,
                       3.05218674E-11, -1.33195876E-15,  3.71885774E+03,
                       5.70164073E+00])),
        transport=gas_transport(geom='linear',
                                diam=2.75,
                                well_depth=80.0),
        note=u'S9/01')

species(name=u'HO2',
        atoms='H:1 O:2',
        thermo=(NASA([200.00, 1000.00],
                     [ 4.30179801E+00, -4.74912051E-03,  2.11582891E-05,
                      -2.42763894E-08,  9.29225124E-12,  2.94808040E+02,
                       3.71666245E+00]),
                NASA([1000.00, 3500.00],
                     [ 4.01721090E+00,  2.23982013E-03, -6.33658150E-07,
                       1.14246370E-10, -1.07908535E-14,  1.11856713E+02,
                       3.78510215E+00])),
        transport=gas_transport(geom='nonlinear',
                                diam=3.458,
                                well_depth=107.4,
                                rot_relax=1.0),
        note=u'L5/89')

species(name=u'H2O',
        atoms='H:2 O:1',
        thermo=(NASA([200.00, 1000.00],
                     [ 4.19864056E+00, -2.03643410E-03,  6.52040211E-06,
                      -5.48797062E-09,  1.77197817E-12, -3.02937267E+04,
                      -8.49032208E-01]),
                NASA([1000.00, 3500.00],
                     [ 3.03399249E+00,  2.17691804E-03, -1.64072518E-07,
                      -9.70419870E-11,  1.68200992E-14, -3.00042971E+04,
                       4.96677010E+00])),
        transport=gas_transport(geom='nonlinear',
                                diam=2.605,
                                well_depth=572.4,
                                dipole=1.844,
                                rot_relax=4.0),
        note=u'L8/89')

species(name=u'H2O2',
        atoms='H:2 O:2',
        thermo=(NASA([200.00, 1000.00],
                     [ 4.27611269E+00, -5.42822417E-04,  1.67335701E-05,
                      -2.15770813E-08,  8.62454363E-12, -1.77025821E+04,
                       3.43505074E+00]),
                NASA([1000.00, 3500.00],
                     [ 4.16500285E+00,  4.90831694E-03, -1.90139225E-06,
                       3.71185986E-10, -2.87908305E-14, -1.78617877E+04,
                       2.91615662E+00])),
        transport=gas_transport(geom='nonlinear',
                                diam=3.458,
                                well_depth=107.4,
                                rot_relax=3.8),
        note=u'L7/88')

species(name=u'H',
        atoms='H:1',
        thermo=(NASA([200.00, 1000.00],
                     [ 2.50000000E+00,  7.05332819E-13, -1.99591964E-15,
                       2.30081632E-18, -9.27732332E-22,  2.54736599E+04,
                      -4.46682853E-01]),
                NASA([1000.00, 3500.00],
                     [ 2.50000001E+00, -2.30842973E-11,  1.61561948E-14,
                      -4.73515235E-18,  4.98197357E-22,  2.54736599E+04,
                      -4.46682914E-01])),
        transport=gas_transport(geom='atom',
                                diam=2.05,
                                well_depth=145.0),
        note=u'L7/88')

species(name=u'CH2',
        atoms='H:2 C:1',
        thermo=(NASA([200.00, 1000.00],
                     [ 3.76267867E+00,  9.68872143E-04,  2.79489841E-06,
                      -3.85091153E-09,  1.68741719E-12,  4.60040401E+04,
                       1.56253185E+00]),
                NASA([1000.00, 3500.00],
                     [ 2.87410113E+00,  3.65639292E-03, -1.40894597E-06,
                       2.60179549E-10, -1.87727567E-14,  4.62636040E+04,
                       6.17119324E+00])),
        transport=gas_transport(geom='linear',
                                diam=3.8,
                                well_depth=144.0),
        note=u'LS/93')

species(name=u'CH2*',
        atoms='H:2 C:1',
        thermo=(NASA([200.00, 1000.00],
                     [ 4.19860411E+00, -2.36661419E-03,  8.23296220E-06,
                      -6.68815981E-09,  1.94314737E-12,  5.04968163E+04,
                      -7.69118967E-01]),
                NASA([1000.00, 3500.00],
                     [ 2.29203842E+00,  4.65588637E-03, -2.01191947E-06,
                       4.17906000E-10, -3.39716365E-14,  5.09259997E+04,
                       8.62650169E+00])),
        transport=gas_transport(geom='linear',
                                diam=3.8,
                                well_depth=144.0),
        note=u'LS/93')

species(name=u'HCO',
        atoms='H:1 C:1 O:1',
        thermo=(NASA([200.00, 1000.00],
                     [ 4.22118584E+00, -3.24392532E-03,  1.37799446E-05,
                      -1.33144093E-08,  4.33768865E-12,  3.83956496E+03,
                       3.39437243E+00]),
                NASA([1000.00, 3500.00],
                     [ 2.77217438E+00,  4.95695526E-03, -2.48445613E-06,
                       5.89161778E-10, -5.33508711E-14,  4.01191815E+03,
                       9.79834492E+00])),
        transport=gas_transport(geom='nonlinear',
                                diam=3.59,
                                well_depth=498.0),
        note=u'L12/89')

species(name=u'CH2O',
        atoms='H:2 C:1 O:1',
        thermo=(NASA([200.00, 1000.00],
                     [ 4.79372315E+00, -9.90833369E-03,  3.73220008E-05,
                      -3.79285261E-08,  1.31772652E-11, -1.43089567E+04,
                       6.02812900E-01]),
                NASA([1000.00, 3500.00],
                     [ 1.76069008E+00,  9.20000082E-03, -4.42258813E-06,
                       1.00641212E-09, -8.83855640E-14, -1.39958323E+04,
                       1.36563230E+01])),
        transport=gas_transport(geom='nonlinear',
                                diam=3.59,
                                well_depth=498.0,
                                rot_relax=2.0),
        note=u'L8/88')

species(name=u'CH3O',
        atoms='H:3 C:1 O:1',
        thermo=(NASA([200.00, 1000.00],
                     [ 3.71180502E+00, -2.80463306E-03,  3.76550971E-05,
                      -4.73072089E-08,  1.86588420E-11,  1.29569760E+03,
                       6.57240864E+00]),
                NASA([1000.00, 6000.00],
                     [ 4.75779238E+00,  7.44142474E-03, -2.69705176E-06,
                       4.38090504E-10, -2.63537098E-14,  3.78111940E+02,
                      -1.96680028E+00])),
        transport=gas_transport(geom='nonlinear',
                                diam=3.69,
                                well_depth=417.0,
                                dipole=1.7,
                                rot_relax=2.0),
        note=u'IU1/03')

species(name=u'CO2',
        atoms='C:1 O:2',
        thermo=(NASA([200.00, 1000.00],
                     [ 2.35677352E+00,  8.98459677E-03, -7.12356269E-06,
                       2.45919022E-09, -1.43699548E-13, -4.83719697E+04,
                       9.90105222E+00]),
                NASA([1000.00, 3500.00],
                     [ 3.85746029E+00,  4.41437026E-03, -2.21481404E-06,
                       5.23490188E-10, -4.72084164E-14, -4.87591660E+04,
                       2.27163806E+00])),
        transport=gas_transport(geom='linear',
                                diam=3.763,
                                well_depth=244.0,
                                polar=2.65,
                                rot_relax=2.1),
        note=u'L7/88')

species(name=u'C2H3',
        atoms='H:3 C:2',
        thermo=(NASA([200.00, 1000.00],
                     [ 3.21246645E+00,  1.51479162E-03,  2.59209412E-05,
                      -3.57657847E-08,  1.47150873E-11,  3.48598468E+04,
                       8.51054025E+00]),
                NASA([1000.00, 3500.00],
                     [ 3.01672400E+00,  1.03302292E-02, -4.68082349E-06,
                       1.01763288E-09, -8.62607041E-14,  3.46128739E+04,
                       7.78732378E+00])),
        transport=gas_transport(geom='nonlinear',
                                diam=4.1,
                                well_depth=209.0,
                                rot_relax=1.0),
        note=u'L2/92')

species(name=u'HCCO',
        atoms='H:1 C:2 O:1',
        thermo=(NASA([300.00, 1000.00],
                     [ 2.25172140E+00,  1.76550210E-02, -2.37291010E-05,
                       1.72757590E-08, -5.06648110E-12,  2.00594490E+04,
                       1.24904170E+01]),
                NASA([1000.00, 4000.00],
                     [ 5.62820580E+00,  4.08534010E-03, -1.59345470E-06,
                       2.86260520E-10, -1.94078320E-14,  1.93272150E+04,
                      -3.93025950E+00])),
        transport=gas_transport(geom='nonlinear',
                                diam=2.5,
                                well_depth=150.0,
                                rot_relax=1.0),
        note=u'SRIC91')

species(name=u'CH2CO',
        atoms='H:2 C:2 O:1',
        thermo=(NASA([200.00, 1000.00],
                     [ 2.13583630E+00,  1.81188721E-02, -1.73947474E-05,
                       9.34397568E-09, -2.01457615E-12, -7.27000000E+03,
                       1.22156480E+01]),
                NASA([1000.00, 3500.00],
                     [ 4.51129732E+00,  9.00359745E-03, -4.16939635E-06,
                       9.23345882E-10, -7.94838201E-14, -7.77850000E+03,
                       6.32247205E-01])),
        transport=gas_transport(geom='nonlinear',
                                diam=3.97,
                                well_depth=436.0,
                                rot_relax=2.0),
        note=u'D05/90')

species(name=u'CH2CHO',
        atoms='H:3 C:2 O:1',
        thermo=(NASA([300.00, 1000.00],
                     [ 3.40906240E+00,  1.07385740E-02,  1.89149250E-06,
                      -7.15858310E-09,  2.86738510E-12,  6.20000000E+01,
                       9.57145350E+00]),
                NASA([1000.00, 5000.00],
                     [ 5.97566990E+00,  8.13059140E-03, -2.74362450E-06,
                       4.07030410E-10, -2.17601710E-14, -9.69500000E+02,
                      -5.03208790E+00])),
        transport=gas_transport(geom='nonlinear',
                                diam=3.97,
                                well_depth=436.0,
                                rot_relax=2.0),
        note=u'D05/83')

species(name=u'C3H3',
        atoms='H:3 C:3',
        thermo=(NASA([200.00, 1000.00],
                     [ 1.35110927E+00,  3.27411223E-02, -4.73827135E-05,
                       3.76309808E-08, -1.18540923E-11,  4.01057783E+04,
                       1.52058924E+01]),
                NASA([1000.00, 6000.00],
                     [ 7.14221880E+00,  7.61902005E-03, -2.67459950E-06,
                       4.24914801E-10, -2.51475415E-14,  3.89087427E+04,
                      -1.25848436E+01])),
        transport=gas_transport(geom='nonlinear',
                                diam=4.76,
                                well_depth=252.0,
                                rot_relax=1.0),
        note=u'T5/97')

species(name=u'aC3H5',
        atoms='H:5 C:3',
        thermo=(NASA([300.00, 1000.00],
                     [ 1.36318350E+00,  1.98138210E-02,  1.24970600E-05,
                      -3.33555550E-08,  1.58465710E-11,  1.92456290E+04,
                       1.71732140E+01]),
                NASA([1000.00, 3000.00],
                     [ 6.50078770E+00,  1.43247310E-02, -5.67816320E-06,
                       1.10808010E-09, -9.03638870E-14,  1.74824490E+04,
                      -1.12430500E+01])),
        transport=gas_transport(geom='nonlinear',
                                diam=4.982,
                                well_depth=266.8,
                                rot_relax=1.0),
        note=u'PD5/98')

species(name=u'C2H3CHO',
        atoms='H:4 C:3 O:1',
        thermo=(NASA([300.00, 1000.00],
                     [ 1.27134980E+00,  2.62310540E-02, -9.29123050E-06,
                      -4.78372720E-09,  3.34805430E-12, -9.33573440E+03,
                       1.94980770E+01]),
                NASA([1000.00, 5000.00],
                     [ 5.81118680E+00,  1.71142560E-02, -7.48341610E-06,
                       1.42522490E-09, -9.17468410E-14, -1.07840540E+04,
                      -4.85880040E+00])),
        transport=gas_transport(geom='nonlinear',
                                diam=5.176,
                                well_depth=357.0,
                                rot_relax=1.0),
        note=u'USC/07')

species(name=u'c-C4H5',
        atoms='H:5 C:4',
        thermo=(NASA([300.00, 1000.00],
                     [-2.63975930E+00,  4.15491570E-02, -2.19209540E-05,
                      -4.65590140E-09,  6.13488900E-12,  3.53738280E+04,
                       3.57017970E+01]),
                NASA([1000.00, 3000.00],
                     [ 6.74671550E+00,  1.72830000E-02, -6.51685790E-06,
                       9.89175740E-10, -3.46049080E-14,  3.28083590E+04,
                      -1.29128800E+01])),
        transport=gas_transport(geom='nonlinear',
                                diam=5.1,
                                well_depth=329.0,
                                rot_relax=1.0),
        note=u'PUPM3')

species(name=u'C4H81',
        atoms='H:8 C:4',
        thermo=(NASA([300.00, 1000.00],
                     [ 1.18113800E+00,  3.08533800E-02,  5.08652470E-06,
                      -2.46548880E-08,  1.11101930E-11, -1.79040040E+03,
                       2.10624690E+01]),
                NASA([1000.00, 5000.00],
                     [ 2.05358410E+00,  3.43505070E-02, -1.58831970E-05,
                       3.30896620E-09, -2.53610450E-13, -2.13972310E+03,
                       1.55432010E+01])),
        transport=gas_transport(geom='nonlinear',
                                diam=5.176,
                                well_depth=357.0,
                                rot_relax=1.0),
        note=u'T6/83')

species(name=u'C5H4O',
        atoms='H:4 C:5 O:1',
        thermo=(NASA([200.00, 1000.00],
                     [ 2.64576497E-01,  3.34873827E-02,  1.67738470E-06,
                      -2.96207455E-08,  1.54431476E-11,  5.11159287E+03,
                       2.35409513E+01]),
                NASA([1000.00, 6000.00],
                     [ 1.00806824E+01,  1.61143465E-02, -5.83314509E-06,
                       9.46759320E-10, -5.68972206E-14,  1.94364771E+03,
                      -2.94521623E+01])),
        transport=gas_transport(geom='nonlinear',
                                diam=5.29,
                                well_depth=464.8,
                                polar=10.32),
        note=u'T8/99')

species(name=u'C5H5O(2,4)',
        atoms='H:5 C:5 O:1',
        thermo=(NASA([300.00, 1000.00],
                     [-3.07776000E+00,  5.25816790E-02, -2.88565130E-05,
                      -3.38854790E-09,  6.33613990E-12,  2.55104550E+04,
                       3.95915220E+01]),
                NASA([1000.00, 3000.00],
                     [ 8.54053120E+00,  2.29895100E-02, -9.54375630E-06,
                       1.70616120E-09, -9.74593600E-14,  2.22636990E+04,
                      -2.08188250E+01])),
        transport=gas_transport(geom='nonlinear',
                                diam=5.2,
                                well_depth=494.0,
                                dipole=1.6,
                                rot_relax=1.0),
        note=u'D9/97')

species(name=u'C5H5',
        atoms='H:5 C:5',
        thermo=(NASA([300.00, 1000.00],
                     [ 9.83498220E-01,  3.36514760E-02, -1.10541810E-07,
                      -3.67433940E-08,  2.31411840E-11,  2.96260000E+04,
                       1.65855190E+01]),
                NASA([1000.00, 2000.00],
                     [ 7.47439380E+00,  1.60127330E-02, -6.48231480E-09,
                      -3.58197030E-09,  9.23650710E-13,  2.80860000E+04,
                      -1.61330000E+01])),
        transport=gas_transport(geom='linear',
                                diam=5.18,
                                well_depth=357.0,
                                rot_relax=1.0),
        note=u'T12/89')

species(name=u'C6H5',
        atoms='H:5 C:6',
        thermo=(NASA([300.00, 1000.00],
                     [-3.69314530E+00,  5.21789680E-02, -2.55584270E-05,
                      -7.06611210E-09,  7.58339750E-12,  3.97795900E+04,
                       4.13325350E+01]),
                NASA([1000.00, 3000.00],
                     [ 8.59731100E+00,  2.22416300E-02, -8.71999780E-06,
                       1.37887850E-09, -5.31460560E-14,  3.62610470E+04,
                      -2.29546430E+01])),
        transport=gas_transport(geom='nonlinear',
                                diam=5.29,
                                well_depth=464.8,
                                polar=10.32),
        note=u'D11/99')

species(name=u'C6H5O',
        atoms='H:5 C:6 O:1',
        thermo=(NASA([200.00, 1000.00],